$$$$$$$$$$$$$$$$$$$$$$$$$$$$$$$$$$$$$$$$$$$$$$$$$$$$$$$$$$$$$$$$$$$$$$$$$$$$$$$$$$$$$$$$$$$$$$$$
$
$                         CUBIT version 2023.11 NX Nastran Translator
$
$            File: case2.bdf
$      Time Stamp: 30-Jan-24 at 18:08:27
$
$
$                        PLEASE CHECK YOUR MODEL FOR UNITS CONSISTENCY.
$
$       It should be noted that load ID's from CUBIT may NOT correspond to Nastran SID's
$ The SID's for the load and restraint sets start at one and increment by one:i.e.,1,2,3,4...
$
$$$$$$$$$$$$$$$$$$$$$$$$$$$$$$$$$$$$$$$$$$$$$$$$$$$$$$$$$$$$$$$$$$$$$$$$$$$$$$$$$$$$$$$$$$$$$$$$
$
$
$ -------------------------
$ Executive Control Section
$ -------------------------
$
SOL 101
CEND
$
$
$ --------------------
$ Case Control Section
$ --------------------
$
ECHO = SORT
$
$
$ Name: Initial
$
$
$ Name: Default Set
$
SUBCASE = 1
$
LABEL = Default Set
$
$ -----------------
$ Bulk Data Section
$ -----------------
$
BEGIN BULK
$
$ Params
$
$
$ Node cards
$
GRID*   609             0               175             0               
*       100             
GRID*   615             0               175             100             
*       100             
GRID*   618             0               281.25          100             
*       100             
GRID*   611             0               281.25          0               
*       100             
GRID*   620             0               175             0               
*       0               
GRID*   624             0               175             100             
*       0               
GRID*   626             0               281.25          100             
*       0               
GRID*   623             0               281.25          0               
*       0               
GRID*   617             0               387.5           100             
*       100             
GRID*   612             0               387.5           0               
*       100             
GRID*   627             0               387.5           100             
*       0               
GRID*   622             0               387.5           0               
*       0               
GRID*   616             0               493.75          100             
*       100             
GRID*   613             0               493.75          0               
*       100             
GRID*   628             0               493.75          100             
*       0               
GRID*   621             0               493.75          0               
*       0               
GRID*   614             0               600             100             
*       100             
GRID*   610             0               600             0               
*       100             
GRID*   625             0               600             100             
*       0               
GRID*   619             0               600             0               
*       0               
$ ... 4496 like lines cut
$
$ Element cards
$
$
$ Name: 1
$
CHEXA   1       1       609     615     618     611     620     624     +
+       626     623     
CHEXA   2       1       611     618     617     612     623     626     +
+       627     622     
CHEXA   3       1       612     617     616     613     622     627     +
+       628     621     
CHEXA   4       1       613     616     614     610     621     628     +
+       625     619     
CHEXA   5       1       419     425     428     421     415     409     +
+       411     418     
CHEXA   6       1       421     428     427     422     418     411     +
+       412     417     
CHEXA   7       1       422     427     426     423     417     412     +
+       413     416     
CHEXA   8       1       423     426     424     420     416     413     +
+       410     414     
CHEXA   9       1       629     635     638     631     640     644     +
+       646     643     
CHEXA   10      1       631     638     637     632     643     646     +
+       647     642     
CHEXA   11      1       632     637     636     633     642     647     +
+       648     641     
CHEXA   12      1       633     636     634     630     641     648     +
+       645     639     
CHEXA   13      1       649     655     658     651     660     664     +
+       666     663     
CHEXA   14      1       651     658     657     652     663     666     +
+       667     662     
CHEXA   15      1       652     657     656     653     662     667     +
+       668     661     
CHEXA   16      1       653     656     654     650     661     668     +
+       665     659     
CHEXA   17      1       669     675     678     671     680     684     +
+       686     683     
CHEXA   18      1       671     678     677     672     683     686     +
+       687     682     
CHEXA   19      1       672     677     676     673     682     687     +
+       688     681     
CHEXA   20      1       673     676     674     670     681     688     +
+       685     679     
$ ... 798 like lines cut
$
$ Property cards
$
$
$ Name: 1
$
PSOLID  1       100     0       
$
$ Material cards
$
$
$ Name: Default-Steel
$
MAT1*   100             206800          80155.039       0.29            
*       7e-06           1.2e-05         
$
$ Restraint cards
$
$
$ Load cards
$
$
$
ENDDATA
