$$$$$$$$$$$$$$$$$$$$$$$$$$$$$$$$$$$$$$$$$$$$$$$$$$$$$$$$$$$$$$$$$$$$$$$$$$$$$$$$$$$$$$$$$$$$$$$$
$
$                         CUBIT version 2023.11 NX Nastran Translator
$
$            File: 4000.bdf
$      Time Stamp: 30-Jan-24 at 17:15:58
$
$
$                        PLEASE CHECK YOUR MODEL FOR UNITS CONSISTENCY.
$
$       It should be noted that load ID's from CUBIT may NOT correspond to Nastran SID's
$ The SID's for the load and restraint sets start at one and increment by one:i.e.,1,2,3,4...
$
$$$$$$$$$$$$$$$$$$$$$$$$$$$$$$$$$$$$$$$$$$$$$$$$$$$$$$$$$$$$$$$$$$$$$$$$$$$$$$$$$$$$$$$$$$$$$$$$
$
$
$ -------------------------
$ Executive Control Section
$ -------------------------
$
SOL 101
CEND
$
$
$ --------------------
$ Case Control Section
$ --------------------
$
ECHO = SORT
$
$
$ Name: Initial
$
$
$ Name: Default Set
$
SUBCASE = 1
$
LABEL = Default Set
$
$ -----------------
$ Bulk Data Section
$ -----------------
$
BEGIN BULK
$
$ Params
$
$
$ Node cards
$
GRID*   14580           0               41              100             
*       100             
GRID*   14585           0               175             100             
*       100             
GRID*   15391           0               152.8           0               
*       100             
GRID*   14581           0               41              0               
*       100             
GRID*   14583           0               41              100             
*       0               
GRID*   14586           0               175             100             
*       0               
GRID*   15398           0               152.8           0               
*       0               
GRID*   14582           0               41              0               
*       0               
GRID*   15388           0               281.25          100             
*       100             
GRID*   15392           0               264.6           0               
*       100             
GRID*   15401           0               281.25          100             
*       0               
GRID*   15397           0               264.6           0               
*       0               
GRID*   15389           0               387.5           100             
*       100             
GRID*   15393           0               376.4           0               
*       100             
GRID*   15400           0               387.5           100             
*       0               
GRID*   15396           0               376.4           0               
*       0               
GRID*   15390           0               493.75          100             
*       100             
GRID*   15394           0               488.2           0               
*       100             
GRID*   15399           0               493.75          100             
*       0               
GRID*   15395           0               488.2           0               
*       0               
$ ... 1266 like lines cut
$
$ Element cards
$
$
$ Name: 1
$
CHEXA   1       1       14580   14585   15391   14581   14583   14586   +
+       15398   14582   
CHEXA   2       1       14585   15388   15392   15391   14586   15401   +
+       15397   15398   
CHEXA   3       1       15388   15389   15393   15392   15401   15400   +
+       15396   15397   
CHEXA   4       1       15389   15390   15394   15393   15400   15399   +
+       15395   15396   
CHEXA   5       1       15390   14265   14264   15394   15399   14266   +
+       14267   15395   
CHEXA   6       1       14269   15402   15407   14270   14265   15390   +
+       15399   14266   
CHEXA   7       1       15402   15403   15406   15407   15390   15389   +
+       15400   15399   
CHEXA   8       1       15403   15404   15405   15406   15389   15388   +
+       15401   15400   
CHEXA   9       1       15404   14584   14587   15405   15388   14585   +
+       14586   15401   
CHEXA   10      1       14273   15410   15417   14274   14269   15402   +
+       15407   14270   
CHEXA   11      1       15410   15409   15416   15417   15402   15403   +
+       15406   15407   
CHEXA   12      1       15409   15408   15415   15416   15403   15404   +
+       15405   15406   
CHEXA   13      1       15408   14607   15414   15415   15404   14584   +
+       14587   15405   
CHEXA   14      1       14607   15411   15413   15414   14584   14603   +
+       15412   14587   
CHEXA   15      1       15411   14588   14591   15413   14603   14589   +
+       14590   15412   
CHEXA   16      1       14277   15418   15427   14278   14273   15410   +
+       15417   14274   
CHEXA   17      1       15418   15419   15426   15427   15410   15409   +
+       15416   15417   
CHEXA   18      1       15419   15420   15425   15426   15409   15408   +
+       15415   15416   
CHEXA   19      1       15420   15421   15424   15425   15408   14607   +
+       15414   15415   
CHEXA   20      1       15421   15422   15423   15424   14607   15411   +
+       15413   15414   
$ ... 798 like lines cut
$
$ Property cards
$
$
$ Name: 1
$
PSOLID  1       100     0       
$
$ Material cards
$
$
$ Name: Default-Steel
$
MAT1*   100             206800          80155.039       0.29            
*       7e-06           1.2e-05         
$
$ Restraint cards
$
$
$ Load cards
$
$
$
ENDDATA
