$$$$$$$$$$$$$$$$$$$$$$$$$$$$$$$$$$$$$$$$$$$$$$$$$$$$$$$$$$$$$$$$$$$$$$$$$$$$$$$$$$$$$$$$$$$$$$$$
$
$                         CUBIT version 16.5.4 NX Nastran Translator
$
$            File: Trelis.nas
$      Time Stamp: 15-Apr-20 at 12:19:48
$
$
$                        PLEASE CHECK YOUR MODEL FOR UNITS CONSISTENCY.
$
$       It should be noted that load ID's from CUBIT may NOT correspond to Nastran SID's
$ The SID's for the load and restraint sets start at one and increment by one:i.e.,1,2,3,4...
$
$$$$$$$$$$$$$$$$$$$$$$$$$$$$$$$$$$$$$$$$$$$$$$$$$$$$$$$$$$$$$$$$$$$$$$$$$$$$$$$$$$$$$$$$$$$$$$$$

$
$
$ -------------------------
$ Executive Control Section
$ -------------------------
$
SOL 101
CEND

$
$ --------------------
$ Case Control Section
$ --------------------
$
ECHO = SORT
$
$
$ Name: Initial
$
$
$ Name: Default Set
$
SUBCASE = 1
$
LABEL = Default Set

$
$ -----------------
$ Bulk Data Section
$ -----------------
$
BEGIN BULK
$
$ Params
$
$
$ Node cards
$
GRID    624     0       12.5    119.521774.52172
GRID    276     0       12.5    139.043494.04344
GRID    274     0       12.5    100.    105.    
GRID    501     0       12.5    100.    80.     
GRID    331     0       25.     119.521774.52172
GRID    275     0       25.     139.043494.04344
GRID    273     0       25.     100.    105.    
GRID    284     0       25.     100.    80.     
GRID    272     0       -0.     119.521774.52172
GRID    173     0       -0.     139.043494.04344
GRID    174     0       0.      100.    105.    
GRID    193     0       -0.     100.    80.     
GRID    287     0       12.5    100.    55.     
GRID    283     0       25.     100.    55.     
GRID    194     0       -0.     100.    55.     
GRID    296     0       12.5    162.5   55.     
GRID    531     0       12.5    131.25  55.     
GRID    295     0       25.     162.5   55.     
GRID    297     0       25.     131.25  55.     
GRID    208     0       -0.     162.5   55.     
$ ... 475 like lines cut
$
$ Element cards
$
$
CHEXA   1       51      624     276     274     501     331     275     +
+       273     284     
CHEXA   2       51      272     173     174     193     624     276     +
+       274     501     
CPENTA  3       51      501     287     624     284     283     331     
CPENTA  4       51      193     194     272     501     287     624     
$
CHEXA   5       52      296     276     624     531     295     275     +
+       331     297     
CHEXA   6       52      208     173     272     209     296     276     +
+       624     531     
CPENTA  7       52      624     287     531     331     283     297     
CPENTA  8       52      272     194     209     624     287     531     
$
CPENTA  9       1       72      11      106     71      10      105     
CPENTA  10      1       73      12      104     72      11      106     
$
CHEXA   11      2       10      11      606     20      21      586     +
+       607     578     
CHEXA   12      2       11      12      26      606     586     25      +
+       581     607     
CHEXA   13      2       20      606     30      19      578     607     +
+       582     18      
CHEXA   14      2       606     26      27      30      607     581     +
+       28      582     
CHEXA   15      2       21      586     607     578     15      29      +
+       334     16      
CHEXA   16      2       586     25      581     607     29      24      +
+       23      334     
CHEXA   17      2       578     607     582     18      16      334     +
+       31      17      
CHEXA   18      2       607     581     28      582     334     23      +
+       22      31      
$
CPENTA  19      3       75      67      101     74      68      100     
CPENTA  20      3       76      66      99      75      67      101     
$
CHEXA   21      4       59      65      389     61      60      388     +
+       391     358     
CHEXA   22      4       65      3       2       389     388     13      +
+       370     391     
CHEXA   23      4       61      389     63      19      358     391     +
+       355     30      
CHEXA   24      4       389     2       1       63      391     370     +
+       14      355     
CHEXA   25      4       60      388     391     358     57      64      +
+       373     58      
CHEXA   26      4       388     13      370     391     64      4       +
+       5       373     
CHEXA   27      4       358     391     355     30      58      373     +
+       62      27      
CHEXA   28      4       391     370     14      355     373     5       +
+       6       62      
$
CHEXA   29      5       68      67      414     70      89      580     +
+       454     418     
CHEXA   30      5       67      66      69      414     580     87      +
+       433     454     
CHEXA   31      5       70      414     31      17      418     454     +
+       431     90      
CHEXA   32      5       414     69      22      31      454     433     +
+       88      431     
CHEXA   33      5       89      580     454     418     79      83      +
+       357     80      
CHEXA   34      5       580     87      433     454     83      82      +
+       85      357     
CHEXA   35      5       418     454     431     90      80      357     +
+       86      81      
CHEXA   36      5       454     433     88      431     357     85      +
+       84      86      
$
CHEXA   37      6       106     60      8       72      105     59      +
+       7       71      
CHEXA   38      6       104     57      9       73      106     60      +
+       8       72      
$
CHEXA   39      7       29      38      75      101     15      32      +
+       74      100     
CHEXA   40      7       24      33      76      99      29      38      +
+       75      101     
$
CHEXA   41      8       51      56      470     50      52      411     +
+       386     362     
CHEXA   42      8       56      34      35      470     411     53      +
+       602     386     
CHEXA   43      8       50      470     571     49      362     386     +
+       522     574     
CHEXA   44      8       470     35      36      571     386     602     +
+       435     522     
CHEXA   45      8       49      571     41      42      574     522     +
+       528     43      
CHEXA   46      8       571     36      37      41      522     435     +
+       40      528     
CHEXA   47      8       52      411     386     362     46      55      +
+       421     47      
CHEXA   48      8       411     53      602     386     55      54      +
+       77      421     
CHEXA   49      8       362     386     522     574     47      421     +
+       356     48      
CHEXA   50      8       386     602     435     522     421     77      +
+       78      356     
CHEXA   51      8       574     522     528     43      48      356     +
+       45      44      
CHEXA   52      8       522     435     40      528     356     78      +
+       39      45      
$
CHEXA   53      9       82      98      434     94      83      338     +
+       332     392     
CHEXA   54      9       98      39      78      434     338     45      +
+       356     332     
CHEXA   55      9       94      434     623     93      392     332     +
+       354     478     
CHEXA   56      9       434     78      77      623     332     356     +
+       421     354     
CHEXA   57      9       93      623     96      84      478     354     +
+       408     86      
CHEXA   58      9       623     77      54      96      354     421     +
+       55      408     
CHEXA   59      9       83      338     332     392     79      97      +
+       360     91      
CHEXA   60      9       338     45      356     332     97      44      +
+       48      360     
CHEXA   61      9       392     332     354     478     91      360     +
+       455     92      
CHEXA   62      9       332     356     421     354     360     48      +
+       47      455     
CHEXA   63      9       478     354     408     86      92      455     +
+       95      81      
CHEXA   64      9       354     421     55      408     455     47      +
+       46      95      
$
CHEXA   65      10      432     101     67      414     103     100     +
+       68      70      
CHEXA   66      10      102     99      66      69      432     101     +
+       67      414     
CPENTA  67      10      31      432     414     17      103     70      
CPENTA  68      10      22      102     69      31      432     414     
$
CHEXA   69      11      29      101     432     334     15      100     +
+       103     16      
CHEXA   70      11      24      99      102     23      29      101     +
+       432     334     
CPENTA  71      11      432     31      334     103     17      16      
CPENTA  72      11      102     22      23      432     31      334     
$
CHEXA   73      12      424     106     11      606     107     105     +
+       10      20      
CHEXA   74      12      108     104     12      26      424     106     +
+       11      606     
CPENTA  75      12      606     30      424     20      19      107     
CPENTA  76      12      26      27      108     606     30      424     
$
CHEXA   77      13      60      106     424     358     59      105     +
+       107     61      
CHEXA   78      13      57      104     108     58      60      106     +
+       424     358     
CPENTA  79      13      424     30      358     107     19      61      
CPENTA  80      13      108     27      58      424     30      358     
$
CPENTA  81      14      114     110     112     113     109     111     
CPENTA  82      14      73      104     12      114     110     112     
$
CHEXA   83      15      111     120     341     112     121     339     +
+       344     333     
CHEXA   84      15      112     341     26      12      333     344     +
+       581     25      
CHEXA   85      15      120     119     123     341     339     118     +
+       342     344     
CHEXA   86      15      341     123     27      26      344     342     +
+       28      581     
CHEXA   87      15      121     339     344     333     115     116     +
+       343     122     
CHEXA   88      15      333     344     581     25      122     343     +
+       23      24      
CHEXA   89      15      339     118     342     344     116     117     +
+       124     343     
CHEXA   90      15      344     342     28      581     343     124     +
+       22      23      
$
CPENTA  91      16      130     126     128     129     125     127     
CPENTA  92      16      76      99      66      130     126     128     
$
CHEXA   93      17      132     131     396     139     133     393     +
+       406     397     
CHEXA   94      17      139     396     137     138     397     406     +
+       398     140     
CHEXA   95      17      131     119     136     396     393     123     +
+       394     406     
CHEXA   96      17      396     136     134     137     406     394     +
+       135     398     
CHEXA   97      17      133     393     406     397     57      58      +
+       373     64      
CHEXA   98      17      397     406     398     140     64      373     +
+       5       4       
CHEXA   99      17      393     123     394     406     58      27      +
+       62      373     
CHEXA   100     17      406     394     135     398     373     62      +
+       6       5       
$
CHEXA   101     18      127     147     427     128     146     417     +
+       429     416     
CHEXA   102     18      128     427     69      66      416     429     +
+       433     87      
CHEXA   103     18      147     117     124     427     417     148     +
+       428     429     
CHEXA   104     18      427     124     22      69      429     428     +
+       88      433     
CHEXA   105     18      146     417     429     416     141     142     +
+       422     144     
CHEXA   106     18      416     429     433     87      144     422     +
+       85      82      
CHEXA   107     18      417     148     428     429     142     143     +
+       145     422     
CHEXA   108     18      429     428     88      433     422     145     +
+       84      85      
$
CHEXA   109     19      110     114     150     133     109     113     +
+       149     132     
CHEXA   110     19      104     73      9       57      110     114     +
+       150     133     
$
CHEXA   111     20      122     126     130     152     115     125     +
+       129     151     
CHEXA   112     20      24      99      76      33      122     126     +
+       130     152     
$
CHEXA   113     21      164     163     512     166     165     495     +
+       509     497     
CHEXA   114     21      166     512     35      34      497     509     +
+       602     53      
CHEXA   115     21      163     162     507     512     495     496     +
+       513     509     
CHEXA   116     21      512     507     36      35      509     513     +
+       435     602     
CHEXA   117     21      162     160     159     507     496     161     +
+       490     513     
CHEXA   118     21      507     159     37      36      513     490     +
+       40      435     
CHEXA   119     21      165     495     509     497     153     154     +
+       483     157     
CHEXA   120     21      497     509     602     53      157     483     +
+       77      54      
CHEXA   121     21      495     496     513     509     154     155     +
+       489     483     
CHEXA   122     21      509     513     435     602     483     489     +
+       78      77      
CHEXA   123     21      496     161     490     513     155     156     +
+       158     489     
CHEXA   124     21      513     490     40      435     489     158     +
+       39      78      
$
CHEXA   125     22      82      94      434     98      144     543     +
+       564     563     
CHEXA   126     22      98      434     78      39      563     564     +
+       489     158     
CHEXA   127     22      94      93      623     434     543     545     +
+       565     564     
CHEXA   128     22      434     623     77      78      564     565     +
+       483     489     
CHEXA   129     22      93      84      96      623     545     145     +
+       549     565     
CHEXA   130     22      623     96      54      77      565     549     +
+       157     483     
CHEXA   131     22      144     543     564     563     141     167     +
+       551     170     
CHEXA   132     22      563     564     489     158     170     551     +
+       155     156     
CHEXA   133     22      543     545     565     564     167     168     +
+       550     551     
CHEXA   134     22      564     565     483     489     551     550     +
+       154     155     
CHEXA   135     22      545     145     549     565     168     143     +
+       169     550     
CHEXA   136     22      565     549     157     483     550     169     +
+       153     154     
$
CHEXA   137     23      566     427     128     126     171     147     +
+       127     125     
CHEXA   138     23      102     69      66      99      566     427     +
+       128     126     
CPENTA  139     23      124     427     566     117     147     171     
CPENTA  140     23      22      69      102     124     427     566     
$
CHEXA   141     24      122     343     566     126     115     116     +
+       171     125     
CHEXA   142     24      24      23      102     99      122     343     +
+       566     126     
CPENTA  143     24      566     343     124     171     116     117     
CPENTA  144     24      102     23      22      566     343     124     
$
CHEXA   145     25      570     341     112     110     172     120     +
+       111     109     
CHEXA   146     25      108     26      12      104     570     341     +
+       112     110     
CPENTA  147     25      341     570     123     120     172     119     
CPENTA  148     25      26      108     27      341     570     123     
$
CHEXA   149     26      133     393     570     110     132     131     +
+       172     109     
CHEXA   150     26      57      58      108     104     133     393     +
+       570     110     
CPENTA  151     26      570     393     123     172     131     119     
CPENTA  152     26      108     58      27      570     393     123     
$
CPENTA  153     27      181     176     178     180     175     177     
CPENTA  154     27      179     173     174     181     176     178     
$
CHEXA   155     28      177     187     348     178     188     345     +
+       351     347     
CHEXA   156     28      178     348     193     174     347     351     +
+       346     192     
CHEXA   157     28      187     186     197     348     345     185     +
+       349     351     
CHEXA   158     28      348     197     194     193     351     349     +
+       195     346     
CHEXA   159     28      188     345     351     347     182     183     +
+       350     196     
CHEXA   160     28      347     351     346     192     196     350     +
+       190     191     
CHEXA   161     28      345     185     349     351     183     184     +
+       198     350     
CHEXA   162     28      351     349     195     346     350     198     +
+       189     190     
$
CPENTA  163     29      207     202     204     205     201     203     
CPENTA  164     29      206     199     200     207     202     204     
$
CHEXA   165     30      211     210     381     216     212     378     +
+       384     382     
CHEXA   166     30      216     381     2       3       382     384     +
+       370     13      
CHEXA   167     30      210     186     214     381     378     197     +
+       379     384     
CHEXA   168     30      381     214     1       2       384     379     +
+       14      370     
CHEXA   169     30      212     378     384     382     208     209     +
+       380     215     
CHEXA   170     30      382     384     370     13      215     380     +
+       5       4       
CHEXA   171     30      378     197     379     384     209     194     +
+       213     380     
CHEXA   172     30      384     379     14      370     380     213     +
+       6       5       
$
CHEXA   173     31      203     229     402     204     228     403     +
+       405     401     
CHEXA   174     31      204     402     226     200     401     405     +
+       400     225     
CHEXA   175     31      229     184     198     402     403     230     +
+       404     405     
CHEXA   176     31      402     198     189     226     405     404     +
+       227     400     
CHEXA   177     31      228     403     405     401     217     218     +
+       399     221     
CHEXA   178     31      401     405     400     225     221     399     +
+       223     220     
CHEXA   179     31      403     230     404     405     218     219     +
+       224     399     
CHEXA   180     31      405     404     227     400     399     224     +
+       222     223     
$
CHEXA   181     32      176     181     233     212     175     180     +
+       232     211     
CHEXA   182     32      173     179     231     208     176     181     +
+       233     212     
$
CHEXA   183     33      196     202     207     236     182     201     +
+       205     235     
CHEXA   184     33      191     199     206     234     196     202     +
+       207     236     
$
CHEXA   185     34      254     253     445     258     255     439     +
+       446     441     
CHEXA   186     34      258     445     259     256     441     446     +
+       443     257     
CHEXA   187     34      253     252     444     445     439     440     +
+       447     446     
CHEXA   188     34      445     444     260     259     446     447     +
+       442     443     
CHEXA   189     34      252     250     249     444     440     251     +
+       438     447     
CHEXA   190     34      444     249     248     260     447     438     +
+       247     442     
CHEXA   191     34      255     439     446     441     237     238     +
+       436     242     
CHEXA   192     34      441     446     443     257     242     436     +
+       243     241     
CHEXA   193     34      439     440     447     446     238     239     +
+       437     436     
CHEXA   194     34      446     447     442     443     436     437     +
+       244     243     
CHEXA   195     34      440     251     438     447     239     240     +
+       246     437     
CHEXA   196     34      447     438     247     442     437     246     +
+       245     244     
$
CHEXA   197     35      220     264     461     268     221     456     +
+       464     463     
CHEXA   198     35      268     461     244     245     463     464     +
+       437     246     
CHEXA   199     35      264     263     462     461     456     457     +
+       465     464     
CHEXA   200     35      461     462     243     244     464     465     +
+       436     437     
CHEXA   201     35      263     222     266     462     457     224     +
+       458     465     
CHEXA   202     35      462     266     241     243     465     458     +
+       242     436     
CHEXA   203     35      221     456     464     463     217     261     +
+       460     267     
CHEXA   204     35      463     464     437     246     267     460     +
+       239     240     
CHEXA   205     35      456     457     465     464     261     262     +
+       459     460     
CHEXA   206     35      464     465     436     437     460     459     +
+       238     239     
CHEXA   207     35      457     224     458     465     262     219     +
+       265     459     
CHEXA   208     35      465     458     242     436     459     265     +
+       237     238     
$
CHEXA   209     36      468     402     204     202     270     229     +
+       203     201     
CHEXA   210     36      269     226     200     199     468     402     +
+       204     202     
CPENTA  211     36      198     402     468     184     229     270     
CPENTA  212     36      189     226     269     198     402     468     
$
CHEXA   213     37      196     350     468     202     182     183     +
+       270     201     
CHEXA   214     37      191     190     269     199     196     350     +
+       468     202     
CPENTA  215     37      468     350     198     270     183     184     
CPENTA  216     37      269     190     189     468     350     198     
$
CHEXA   217     38      471     348     178     176     271     187     +
+       177     175     
CHEXA   218     38      272     193     174     173     471     348     +
+       178     176     
CPENTA  219     38      348     471     197     187     271     186     
CPENTA  220     38      193     272     194     348     471     197     
$
CHEXA   221     39      212     378     471     176     211     210     +
+       271     175     
CHEXA   222     39      208     209     272     173     212     378     +
+       471     176     
CPENTA  223     39      471     378     197     271     210     186     
CPENTA  224     39      272     209     194     471     378     197     
$
CPENTA  225     40      278     274     276     277     273     275     
CPENTA  226     40      179     174     173     278     274     276     
$
CHEXA   227     41      273     274     501     284     282     500     +
+       504     498     
CHEXA   228     41      274     174     193     501     500     192     +
+       346     504     
CHEXA   229     41      284     501     287     283     498     504     +
+       502     285     
CHEXA   230     41      501     193     194     287     504     346     +
+       195     502     
CHEXA   231     41      282     500     504     498     279     286     +
+       503     280     
CHEXA   232     41      500     192     346     504     286     191     +
+       190     503     
CHEXA   233     41      498     504     502     285     280     503     +
+       288     281     
CHEXA   234     41      504     346     195     502     503     190     +
+       189     288     
$
CPENTA  235     42      294     289     292     293     290     291     
CPENTA  236     42      206     200     199     294     289     292     
$
CHEXA   237     43      295     299     534     297     296     535     +
+       537     531     
CHEXA   238     43      299     138     137     534     535     140     +
+       398     537     
CHEXA   239     43      297     534     298     283     531     537     +
+       532     287     
CHEXA   240     43      534     137     134     298     537     398     +
+       135     532     
CHEXA   241     43      296     535     537     531     208     215     +
+       380     209     
CHEXA   242     43      535     140     398     537     215     4       +
+       5       380     
CHEXA   243     43      531     537     532     287     209     380     +
+       213     194     
CHEXA   244     43      537     398     135     532     380     5       +
+       6       213     
$
CHEXA   245     44      290     289     555     306     305     554     +
+       558     556     
CHEXA   246     44      289     200     226     555     554     225     +
+       400     558     
CHEXA   247     44      306     555     288     281     556     558     +
+       557     307     
CHEXA   248     44      555     226     189     288     558     400     +
+       227     557     
CHEXA   249     44      305     554     558     556     300     304     +
+       552     301     
CHEXA   250     44      554     225     400     558     304     220     +
+       223     552     
CHEXA   251     44      556     558     557     307     301     552     +
+       303     302     
CHEXA   252     44      558     400     227     557     552     223     +
+       222     303     
$
CHEXA   253     45      276     296     309     278     275     295     +
+       308     277     
CHEXA   254     45      173     208     231     179     276     296     +
+       309     278     
$
CHEXA   255     46      286     311     294     292     279     310     +
+       293     291     
CHEXA   256     46      191     234     206     199     286     311     +
+       294     292     
$
CHEXA   257     47      321     325     598     324     322     594     +
+       599     592     
CHEXA   258     47      325     256     259     598     594     257     +
+       443     599     
CHEXA   259     47      324     598     597     323     592     599     +
+       600     593     
CHEXA   260     47      598     259     260     597     599     443     +
+       442     600     
CHEXA   261     47      323     597     320     318     593     600     +
+       591     319     
CHEXA   262     47      597     260     248     320     600     442     +
+       247     591     
CHEXA   263     47      322     594     599     592     312     317     +
+       589     313     
CHEXA   264     47      594     257     443     599     317     241     +
+       243     589     
CHEXA   265     47      592     599     600     593     313     589     +
+       590     314     
CHEXA   266     47      599     443     442     600     589     243     +
+       244     590     
CHEXA   267     47      593     600     591     319     314     590     +
+       316     315     
CHEXA   268     47      600     442     247     591     590     244     +
+       245     316     
$
CHEXA   269     48      220     268     461     264     304     616     +
+       617     609     
CHEXA   270     48      268     245     244     461     616     316     +
+       590     617     
CHEXA   271     48      264     461     462     263     609     617     +
+       618     610     
CHEXA   272     48      461     244     243     462     617     590     +
+       589     618     
CHEXA   273     48      263     462     266     222     610     618     +
+       611     303     
CHEXA   274     48      462     243     241     266     618     589     +
+       317     611     
CHEXA   275     48      304     616     617     609     300     329     +
+       613     326     
CHEXA   276     48      616     316     590     617     329     315     +
+       314     613     
CHEXA   277     48      609     617     618     610     326     613     +
+       612     327     
CHEXA   278     48      617     590     589     618     613     314     +
+       313     612     
CHEXA   279     48      610     618     611     303     327     612     +
+       328     302     
CHEXA   280     48      618     589     317     611     612     313     +
+       312     328     
$
CHEXA   281     49      621     292     289     555     330     291     +
+       290     306     
CHEXA   282     49      269     199     200     226     621     292     +
+       289     555     
CPENTA  283     49      288     621     555     281     330     306     
CPENTA  284     49      189     269     226     288     621     555     
$
CHEXA   285     50      286     292     621     503     279     291     +
+       330     280     
CHEXA   286     50      191     199     269     190     286     292     +
+       621     503     
CPENTA  287     50      621     288     503     330     281     280     
CPENTA  288     50      269     189     190     621     288     503     
$
$ Property cards
$
$
PSOLID  51      100     0       
$
PSOLID  52      100     0       
$
PSOLID  1       100     0       
$
PSOLID  2       100     0       
$
PSOLID  3       100     0       
$
PSOLID  4       100     0       
$
PSOLID  5       100     0       
$
PSOLID  6       100     0       
$
PSOLID  7       100     0       
$
PSOLID  8       100     0       
$
PSOLID  9       100     0       
$
PSOLID  10      100     0       
$
PSOLID  11      100     0       
$
PSOLID  12      100     0       
$
PSOLID  13      100     0       
$
PSOLID  14      100     0       
$
PSOLID  15      100     0       
$
PSOLID  16      100     0       
$
PSOLID  17      100     0       
$
PSOLID  18      100     0       
$
PSOLID  19      100     0       
$
PSOLID  20      100     0       
$
PSOLID  21      100     0       
$
PSOLID  22      100     0       
$
PSOLID  23      100     0       
$
PSOLID  24      100     0       
$
PSOLID  25      100     0       
$
PSOLID  26      100     0       
$
PSOLID  27      100     0       
$
PSOLID  28      100     0       
$
PSOLID  29      100     0       
$
PSOLID  30      100     0       
$
PSOLID  31      100     0       
$
PSOLID  32      100     0       
$
PSOLID  33      100     0       
$
PSOLID  34      100     0       
$
PSOLID  35      100     0       
$
PSOLID  36      100     0       
$
PSOLID  37      100     0       
$
PSOLID  38      100     0       
$
PSOLID  39      100     0       
$
PSOLID  40      100     0       
$
PSOLID  41      100     0       
$
PSOLID  42      100     0       
$
PSOLID  43      100     0       
$
PSOLID  44      100     0       
$
PSOLID  45      100     0       
$
PSOLID  46      100     0       
$
PSOLID  47      100     0       
$
PSOLID  48      100     0       
$
PSOLID  49      100     0       
$
PSOLID  50      100     0       
$
$ Material cards
$
$
$ Name: Default-Steel
$
MAT1*   100             206800          80155.039       0.29            
*       7e-06           1.2e-05         
$
$ Restraint cards
$
$
$ Load cards
$
$
$
ENDDATA
