$$$$$$$$$$$$$$$$$$$$$$$$$$$$$$$$$$$$$$$$$$$$$$$$$$$$$$$$$$$$$$$$$$$$$$$$$$$$$$$$$$$$$$$$$$$$$$$$
$
$                         CUBIT version 2023.11 NX Nastran Translator
$
$            File: angle_1.bdf
$      Time Stamp: 01-Feb-24 at 18:18:33
$
$
$                        PLEASE CHECK YOUR MODEL FOR UNITS CONSISTENCY.
$
$       It should be noted that load ID's from CUBIT may NOT correspond to Nastran SID's
$ The SID's for the load and restraint sets start at one and increment by one:i.e.,1,2,3,4...
$
$$$$$$$$$$$$$$$$$$$$$$$$$$$$$$$$$$$$$$$$$$$$$$$$$$$$$$$$$$$$$$$$$$$$$$$$$$$$$$$$$$$$$$$$$$$$$$$$
$
$
$ -------------------------
$ Executive Control Section
$ -------------------------
$
SOL 101
CEND
$
$
$ --------------------
$ Case Control Section
$ --------------------
$
ECHO = SORT
$
$
$ Name: Initial
$
$
$ Name: Default Set
$
SUBCASE = 1
$
LABEL = Default Set
$
$ -----------------
$ Bulk Data Section
$ -----------------
$
BEGIN BULK
$
$ Params
$
$
$ Node cards
$
GRID*   7               0               -0.5            -0.5            
*       -0.5            
GRID*   5               0               -0.5            -0.5            
*       0.5             
GRID*   6               0               0.5             -0.5            
*       0.5             
GRID*   8               0               0.5             -0.5            
*       -0.5            
GRID*   1               0               -0.5            0.40878846368167
*       -0.5            
GRID*   3               0               -0.5            0.39133339875345
*       0.5             
GRID*   4               0               0.5             0.39133339875345
*       0.5             
GRID*   2               0               0.5             0.40878846368167
*       -0.5            
$
$ Element cards
$
$
$ Name: 1
$
CHEXA   1       1       7       5       6       8       1       3       +
+       4       2       
$
$ Property cards
$
$
$ Name: 1
$
PSOLID  1       100     0       
$
$ Material cards
$
$
$ Name: Default-Steel
$
MAT1*   100             206800          80155.039       0.29            
*       7e-06           1.2e-05         
$
$ Restraint cards
$
$
$ Load cards
$
$
$
ENDDATA
